# generated using pymatgen
data_HoFeO3
_symmetry_space_group_name_H-M   'P 1'
_cell_length_a   5.58250000
_cell_length_b   7.58450000
_cell_length_c   5.26800000
_cell_angle_alpha   90.00000000
_cell_angle_beta   90.00000000
_cell_angle_gamma   90.00000000
_symmetry_Int_Tables_number   1
_chemical_formula_structural   HoFeO3
_chemical_formula_sum   'Ho4 Fe4 O12'
_cell_volume   223.04960254
_cell_formula_units_Z   4
loop_
 _symmetry_equiv_pos_site_id
 _symmetry_equiv_pos_as_xyz
  1  'x, y, z'
loop_
 _atom_site_type_symbol
 _atom_site_label
 _atom_site_symmetry_multiplicity
 _atom_site_fract_x
 _atom_site_fract_y
 _atom_site_fract_z
 _atom_site_occupancy
  Ho  Ho1  1  0.06930000  0.25000000  0.97900000  1.0
  Ho  Ho1  1  0.43070000  0.75000000  0.47900000  1.0
  Ho  Ho1  1  0.93070000  0.75000000  0.02100000  1.0
  Ho  Ho1  1  0.56930000  0.25000000  0.52100000  1.0
  Fe  Fe1  1  0.00000000  0.00000000  0.50000000  1.0
  Fe  Fe1  1  0.50000000  0.00000000  0.00000000  1.0
  Fe  Fe1  1  0.50000000  0.50000000  0.00000000  1.0
  Fe  Fe1  1  0.00000000  0.50000000  0.50000000  1.0
  O  O1  1  0.44500000  0.25000000  0.09700000  1.0
  O  O1  1  0.05500000  0.75000000  0.59700000  1.0
  O  O1  1  0.55500000  0.75000000  0.90300000  1.0
  O  O1  1  0.94500000  0.25000000  0.40300000  1.0
  O  O2  1  0.31900000  0.06000000  0.69700000  1.0
  O  O2  1  0.18100000  0.94000000  0.19700000  1.0
  O  O2  1  0.68100000  0.94000000  0.30300000  1.0
  O  O2  1  0.81900000  0.06000000  0.80300000  1.0
  O  O2  1  0.81900000  0.44000000  0.80300000  1.0
  O  O2  1  0.68100000  0.56000000  0.30300000  1.0
  O  O2  1  0.18100000  0.56000000  0.19700000  1.0
  O  O2  1  0.31900000  0.44000000  0.69700000  1.0
